$# LS-DYNA Keyword file created by LS-PREPOST 3.0(Alpha) - 15Jun2009(10:30)
$# Created on Feb-16-2009 (16:17:10)
*KEYWORD  
*TITLE
$# title
LS-DYNA keyword deck by LS-Prepost                                              
*CONTROL_IMPLICIT_AUTO
$#   iauto    iteopt    itewin     dtmin     dtmax     dtexp
         0        11         5     0.000     0.000     0.000
*CONTROL_IMPLICIT_GENERAL
$#  imflag       dt0    imform      nsbs       igs     cnstn      form    zero_v
         1  0.100000         2         1         2         0         0         1
*CONTROL_IMPLICIT_NONLINEAR
$#  nsolvr    ilimit    maxref     dctol     ectol  not used     lstol      rssf
         2        11        15  0.001000  0.010000     0.000  0.900000  1.000000
$#   dnorm    diverg     istif   nlprint
         2         1         1         2
$#  arcctl    arcdir    arclen    arcmth    arcdmp
         0         0     0.000         1         2
*CONTROL_TERMINATION
$#  endtim    endcyc     dtmin    endeng    endmas
 1.0000E+5         0     0.000     0.000     0.000
*CONTROL_TIMESTEP
$#  dtinit    tssfac      isdo    tslimt     dt2ms      lctm     erode     ms1st
     0.000  0.900000         0     0.000     0.000         0         0         0
$#  dt2msf   dt2mslc     imscl
     0.000         0         0
*DATABASE_BINARY_D3PLOT
$#      dt      lcdt      beam     npltc    psetid
  0.100000         0         0         0         0
$#   ioopt
         0
*DATABASE_BINARY_D3THDT
$#      dt      lcdt      beam     npltc    psetid
 1.0000E+6         0         0         0         0
*BOUNDARY_PRESCRIBED_MOTION_SET_ID
$#      id                                                               heading
         18                                                                     
$#    nsid       dof       vad      lcid        sf       vid     death     birth
         1         3         0         1  1.000000         01.0000E+28     0.000
*BOUNDARY_SPC_SET
$#    nsid       cid      dofx      dofy      dofz     dofrx     dofry     dofrz
         1         0         1         1         0         1         1         1
*SET_NODE_LIST
$#     sid       da1       da2       da3       da4
         1     0.000     0.000     0.000     0.000
$#    nid1      nid2      nid3      nid4      nid5      nid6      nid7      nid8
       311       312       313       314       315       316       317       318
       319       320       321       322       323       324       325       326
       327       328       329       330       331       332       333       334
       335       336       337       338       339       340       341       342
       343       344       345       346       347       348       349       350
       351       352       353       354       355       356       357       358
       359       360       361       362       363       364       365       366
       367       368       369       370       371       372       373       374
       375       376       377       378       379       380       381       382
       383       384       385       386       387       388       389       390
       391       392       393       394       395       396       397       398
       399       400       401       402       403       404       405       406
       407       408       409       410       411       412       413       414
       415       416       417       418       419       420       421       422
       423       424       425       426       427       428       429       430
       431       432       433       434       435       436       437       438
       439       440       441       442       443       444       445       446
       447       448       449       450       451       452       453       454
       455       456       457       458       459       460       461       462
       463       464       465       466       467       468       469       470
$ ... 157 like lines cut
*BOUNDARY_SPC_SET
$#    nsid       cid      dofx      dofy      dofz     dofrx     dofry     dofrz
         2         0         1         1         1         1         1         1
*SET_NODE_LIST
$#     sid       da1       da2       da3       da4
         2     0.000     0.000     0.000     0.000
$#    nid1      nid2      nid3      nid4      nid5      nid6      nid7      nid8
      4760      4761      4762      4763      4764      4765      4766      4767
      4768      4769      4770      4771      4772      4773      4774      4775
      4776      4777      4778      4779      4780      4781      4782      4783
      4798      4799      4800      4801      4802      4803      4804      4805
      4806      4807      4808      4809      4824      4825      4826      4827
      4828      4829      4830      4831      4832      4833      4834      4835
      4850      4851      4852      4853      4854      4855      4856      4857
      4858      4859      4860      4861      4876      4877      4878      4879
      4880      4881      4882      4883      4884      4885      4886      4887
      4916      4917      4918      4919      4920      4921      4922      4923
      4924      4925      4926      4927      4928      4929      4930      4931
      4932      4933      4934      4935      4936      4937      4938      4939
      4954      4955      4956      4957      4958      4959      4960      4961
      4962      4963      4964      4965      4980      4981      4982      4983
      4984      4985      4986      4987      4988      4989      4990      4991
      5006      5007      5008      5009      5010      5011      5012      5013
      5014      5015      5016      5017      5032      5033      5034      5035
      5036      5037      5038      5039      5040      5041      5042      5043
      5058      5059      5060      5061      5062      5063      5064      5065
      5066      5067      5068      5069      5084      5085      5086      5087
$ ... 145 like lines cut
*PART
$# title
PART_7                                                                          
$#     pid     secid       mid     eosid      hgid      grav    adpopt      tmid
         1         1         1         0         0         0         0         0
*SECTION_SOLID
$#   secid    elform       aet
         1         1         0
*MAT_PLASTIC_KINEMATIC
$#     mid        ro         e        pr      sigy      etan      beta
         1 7.8900E-9 2.0000E+5  0.300000 440.00000 80000.000  0.500000
$#     src       srp        fs        vp
     0.000     0.000  0.900000     0.000
*DEFINE_CURVE
$#    lcid      sidr       sfa       sfo      offa      offo    dattyp
         1         0  1.000000  1.000000     0.000     0.000         0
$#                a1                  o1
               0.000               0.000
           0.0050000           0.1600000
          10.0000000           0.1600000
*ELEMENT_SOLID (ten nodes format)
$#   eid     pid
       1       1
$#    n1      n2      n3      n4      n5      n6      n7      n8      n9     n10
       4       5       6       7      33      34      35      36       0       0
       2       1
      33      34      35      36      64      65      66      67       0       0
       3       1
      64      65      66      67      95      96      97      98       0       0
       4       1
      95      96      97      98     126     127     128     129       0       0
       5       1
     126     127     128     129     157     158     159     160       0       0
       6       1
       5       8       9       6      34      37      38      35       0       0
       7       1
      34      37      38      35      65      68      69      66       0       0
       8       1
      65      68      69      66      96      99     100      97       0       0
       9       1
      96      99     100      97     127     130     131     128       0       0
      10       1
     127     130     131     128     158     161     162     159       0       0
      11       1
$ ... 14763 like lines cut
*NODE
$#   nid               x               y               z      tc      rc
       1 -3.7861767e-007  9.7887425e-007      30.5442505       0       0
       2 -3.0538377e-008  9.7887437e-007      26.0442505       0       0
       3  1.5109619e-006      -5.0000381      26.0442505       0       0
       4      -4.9039578      -0.9754953      26.0442505       0       0
       5      -4.6194220      -1.9134613      26.0442505       0       0
       6      -3.9289634      -1.6548897      26.0442505       0       0
       7      -3.9749725      -0.8932864      26.0442505       0       0
       8      -4.1573658      -2.7778947      26.0442505       0       0
       9      -3.2153819      -2.0901115      26.0442505       0       0
      10      -3.5355463      -3.5355763      26.0442505       0       0
      11      -2.9508016      -2.9395988      26.0442505       0       0
      12      -2.7778592      -4.1573892      26.0442505       0       0
      13      -2.0899646      -3.2255180      26.0442505       0       0
      14      -1.9134216      -4.6194377      26.0442505       0       0
      15      -1.6430235      -3.9082057      26.0442505       0       0
      16      -0.9754531      -4.9039655      26.0442505       0       0
      17      -0.8809059      -3.9633877      26.0442505       0       0
      18  1.2026642e-006      -4.0000381      26.0442505       0       0
      19  8.9436656e-007      -3.0000384      26.0442505       0       0
      20      -1.0317106      -3.0443361      26.0442505       0       0
$ ... 8969 like lines cut
*END
*COMPONENT
         1  0.251000  0.635000  0.843000     0.000         0         0         0
Assembly 1                      
*COMPONENT_PART
         1         1
*COMPONENT_END
